
     RDKit          3D

  0  0  0  0  0  0  0  0  0  0999 V3000
M  V30 BEGIN CTAB
M  V30 COUNTS 91 96 0 0 0
M  V30 BEGIN ATOM
M  V30 1 C -4.9073 3.2440 -2.3469 0
M  V30 2 C -4.0812 2.8782 -1.1785 0
M  V30 3 O -3.6975 3.7831 -0.4072 0
M  V30 4 O -3.7466 1.5854 -0.9484 0
M  V30 5 C -2.9755 1.1259 0.1175 0
M  V30 6 C -3.4118 -0.0696 0.8362 0
M  V30 7 C -2.5273 -1.1617 0.2126 0
M  V30 8 C -1.2476 -0.3997 0.3105 0
M  V30 9 C -1.6030 0.8085 -0.5255 0
M  V30 10 C -0.5518 1.8193 -0.2504 0
M  V30 11 C 0.7663 1.1779 -0.7149 0
M  V30 12 C 1.0589 -0.0067 0.1383 0
M  V30 13 C -0.0029 -1.0812 -0.0737 0
M  V30 14 C 0.2082 -2.2374 0.8941 0
M  V30 15 C 1.6030 -2.7754 0.6243 0
M  V30 16 C 2.5631 -1.6701 1.0141 0
M  V30 17 C 2.4603 -0.5112 0.0515 0
M  V30 18 C 3.3830 0.5623 0.5082 0
M  V30 19 C 4.7108 0.1903 1.0319 0
M  V30 20 C 5.0227 -1.2602 1.2044 0
M  V30 21 C 3.9377 -2.2359 1.0228 0
M  V30 22 O 5.6547 -1.5336 2.4444 0
M  V30 23 N 5.7460 0.9340 0.3714 0
M  V30 24 C 5.8959 0.7942 -1.0077 0
M  V30 25 C 7.2778 0.9824 -1.5492 0
M  V30 26 O 8.0589 1.8290 -0.7684 0
M  V30 27 C 8.1450 1.1903 0.4906 0
M  V30 28 C 6.8228 1.3837 1.1586 0
M  V30 29 C 2.7290 -0.9184 -1.3799 0
M  V30 30 C -1.7547 0.4901 -1.9821 0
M  V30 31 N -4.7474 -0.4798 0.9346 0 CHG=1
M  V30 32 C -4.7124 -1.7443 1.7046 0
M  V30 33 C -5.1171 -2.8587 0.8310 0
M  V30 34 C -5.3610 -2.2952 -0.5073 0
M  V30 35 C -5.3246 -0.8236 -0.3394 0
M  V30 36 C -5.6634 0.3350 1.6437 0
M  V30 37 C -5.4998 1.7731 1.6843 0
M  V30 38 C -6.4430 2.5677 1.2110 0
M  V30 39 H -5.9115 3.5872 -1.9624 0
M  V30 40 H -4.5085 4.1467 -2.8892 0
M  V30 41 H -5.0754 2.4081 -3.0429 0
M  V30 42 H -2.7053 2.0197 0.7611 0
M  V30 43 H -3.0068 0.0066 1.8935 0
M  V30 44 H -2.4286 -2.0597 0.7959 0
M  V30 45 H -2.7512 -1.2978 -0.8609 0
M  V30 46 H -1.1520 -0.0383 1.3594 0
M  V30 47 H -0.6552 2.7659 -0.7913 0
M  V30 48 H -0.4378 1.9504 0.8405 0
M  V30 49 H 1.5311 1.9544 -0.6167 0
M  V30 50 H 0.6824 0.9259 -1.7985 0
M  V30 51 H 0.9089 0.3255 1.2093 0
M  V30 52 H 0.0165 -1.5099 -1.0802 0
M  V30 53 H 0.1443 -1.9253 1.9357 0
M  V30 54 H -0.5159 -3.0121 0.6398 0
M  V30 55 H 1.7066 -3.0842 -0.4209 0
M  V30 56 H 1.8238 -3.6336 1.2792 0
M  V30 57 H 2.2693 -1.3183 2.0057 0
M  V30 58 H 3.5253 1.2356 -0.3932 0
M  V30 59 H 2.7952 1.2382 1.2013 0
M  V30 60 H 4.7319 0.6045 2.0951 0
M  V30 61 H 5.8282 -1.4994 0.4452 0
M  V30 62 H 3.9504 -3.0217 1.8365 0
M  V30 63 H 4.0355 -2.8618 0.0865 0
M  V30 64 H 5.1463 -1.0130 3.1190 0
M  V30 65 H 5.5268 -0.1665 -1.4210 0
M  V30 66 H 5.2493 1.5737 -1.5174 0
M  V30 67 H 7.2373 1.4241 -2.5678 0
M  V30 68 H 7.8472 0.0353 -1.6508 0
M  V30 69 H 8.3145 0.0991 0.3631 0
M  V30 70 H 8.9309 1.6607 1.1160 0
M  V30 71 H 6.8055 0.8541 2.1460 0
M  V30 72 H 6.7260 2.4820 1.3745 0
M  V30 73 H 3.4595 -1.7183 -1.4936 0
M  V30 74 H 3.1779 -0.0064 -1.8728 0
M  V30 75 H 1.8281 -1.1880 -1.9446 0
M  V30 76 H -1.3737 1.3897 -2.5503 0
M  V30 77 H -2.7930 0.3436 -2.2764 0
M  V30 78 H -1.1256 -0.3558 -2.3176 0
M  V30 79 H -3.7666 -1.8653 2.2656 0
M  V30 80 H -5.4750 -1.7257 2.5446 0
M  V30 81 H -4.2581 -3.5906 0.7826 0
M  V30 82 H -5.9664 -3.4662 1.2325 0
M  V30 83 H -6.3773 -2.6262 -0.8448 0
M  V30 84 H -4.6682 -2.6652 -1.2922 0
M  V30 85 H -4.8082 -0.4164 -1.2207 0
M  V30 86 H -6.3789 -0.4203 -0.4254 0
M  V30 87 H -6.7039 0.0437 1.2862 0
M  V30 88 H -5.7302 0.0017 2.7331 0
M  V30 89 H -4.6289 2.2544 2.0973 0
M  V30 90 H -6.3169 3.6272 1.2437 0
M  V30 91 H -7.3476 2.1362 0.7880 0
M  V30 END ATOM
M  V30 BEGIN BOND
M  V30 1 1 1 2
M  V30 2 2 2 3
M  V30 3 1 2 4
M  V30 4 1 4 5
M  V30 5 1 5 6
M  V30 6 1 6 7
M  V30 7 1 7 8
M  V30 8 1 8 9
M  V30 9 1 9 10
M  V30 10 1 10 11
M  V30 11 1 11 12
M  V30 12 1 12 13
M  V30 13 1 13 14
M  V30 14 1 14 15
M  V30 15 1 15 16
M  V30 16 1 16 17
M  V30 17 1 17 18
M  V30 18 1 18 19
M  V30 19 1 19 20
M  V30 20 1 20 21
M  V30 21 1 20 22
M  V30 22 1 19 23
M  V30 23 1 23 24
M  V30 24 1 24 25
M  V30 25 1 25 26
M  V30 26 1 26 27
M  V30 27 1 27 28
M  V30 28 1 17 29
M  V30 29 1 9 30
M  V30 30 1 6 31
M  V30 31 1 31 32
M  V30 32 1 32 33
M  V30 33 1 33 34
M  V30 34 1 34 35
M  V30 35 1 31 36
M  V30 36 1 36 37
M  V30 37 2 37 38
M  V30 38 1 9 5
M  V30 39 1 13 8
M  V30 40 1 17 12
M  V30 41 1 21 16
M  V30 42 1 28 23
M  V30 43 1 35 31
M  V30 44 1 1 39
M  V30 45 1 1 40
M  V30 46 1 1 41
M  V30 47 1 5 42
M  V30 48 1 6 43
M  V30 49 1 7 44
M  V30 50 1 7 45
M  V30 51 1 8 46
M  V30 52 1 10 47
M  V30 53 1 10 48
M  V30 54 1 11 49
M  V30 55 1 11 50
M  V30 56 1 12 51
M  V30 57 1 13 52
M  V30 58 1 14 53
M  V30 59 1 14 54
M  V30 60 1 15 55
M  V30 61 1 15 56
M  V30 62 1 16 57
M  V30 63 1 18 58
M  V30 64 1 18 59
M  V30 65 1 19 60
M  V30 66 1 20 61
M  V30 67 1 21 62
M  V30 68 1 21 63
M  V30 69 1 22 64
M  V30 70 1 24 65
M  V30 71 1 24 66
M  V30 72 1 25 67
M  V30 73 1 25 68
M  V30 74 1 27 69
M  V30 75 1 27 70
M  V30 76 1 28 71
M  V30 77 1 28 72
M  V30 78 1 29 73
M  V30 79 1 29 74
M  V30 80 1 29 75
M  V30 81 1 30 76
M  V30 82 1 30 77
M  V30 83 1 30 78
M  V30 84 1 32 79
M  V30 85 1 32 80
M  V30 86 1 33 81
M  V30 87 1 33 82
M  V30 88 1 34 83
M  V30 89 1 34 84
M  V30 90 1 35 85
M  V30 91 1 35 86
M  V30 92 1 36 87
M  V30 93 1 36 88
M  V30 94 1 37 89
M  V30 95 1 38 90
M  V30 96 1 38 91
M  V30 END BOND
M  V30 END CTAB
M  END

$$$$
