
     RDKit          3D

  0  0  0  0  0  0  0  0  0  0999 V3000
M  V30 BEGIN CTAB
M  V30 COUNTS 240 248 0 0 0
M  V30 BEGIN ATOM
M  V30 1 C -10.2076 -1.7356 1.3132 0
M  V30 2 C -9.4258 -0.7278 2.1674 0
M  V30 3 S -8.2506 -1.5746 3.1737 0
M  V30 4 C -6.9591 -2.4988 2.4056 0
M  V30 5 C -5.8561 -1.8228 1.7146 0
M  V30 6 C -6.1384 -0.9369 0.5450 0
M  V30 7 C -6.3090 -1.7900 -0.7153 0
M  V30 8 C -6.0955 -3.2353 -0.5340 0
M  V30 9 C -5.1448 -3.6950 0.5064 0
M  V30 10 O -4.8130 -2.7091 1.3775 0
M  V30 11 O -3.9379 -4.1682 -0.0407 0
M  V30 12 C -3.4990 -5.3512 0.5815 0
M  V30 13 C -2.3152 -5.1206 1.4470 0
M  V30 14 O -1.1403 -5.2526 0.6851 0
M  V30 15 C -0.8201 -6.5075 0.2966 0
M  V30 16 C -2.0122 -7.2405 -0.2289 0
M  V30 17 C -3.1678 -6.3770 -0.5044 0
M  V30 18 O -4.3039 -7.1909 -0.7358 0
M  V30 19 O -1.5993 -7.8057 -1.4625 0
M  V30 20 O 0.2202 -6.4610 -0.5944 0
M  V30 21 C 1.1509 -5.4848 -0.5028 0
M  V30 22 C 2.4513 -5.9190 -1.2226 0
M  V30 23 O 3.1430 -4.7594 -1.4150 0
M  V30 24 C 3.7925 -4.3411 -0.2137 0
M  V30 25 C 3.0754 -4.8287 0.9961 0
M  V30 26 C 1.5987 -5.0435 0.8427 0
M  V30 27 O 0.9080 -3.8536 1.2118 0
M  V30 28 O 3.7315 -5.9198 1.5400 0
M  V30 29 O 5.0397 -4.8045 -0.3129 0
M  V30 30 C 6.1495 -4.1016 -0.0084 0
M  V30 31 C 6.0649 -2.8536 0.7287 0
M  V30 32 O 7.0567 -1.9751 0.1782 0
M  V30 33 C 6.5912 -1.4058 -1.0085 0
M  V30 34 C 6.3791 -2.5339 -1.9719 0
M  V30 35 C 6.8528 -3.8528 -1.3554 0
M  V30 36 O 8.2321 -3.7655 -1.1923 0
M  V30 37 O 5.1119 -2.6156 -2.4904 0
M  V30 38 O 5.4854 -0.6282 -0.7610 0
M  V30 39 C 5.7209 0.7452 -0.8390 0
M  V30 40 C 5.1225 1.5139 0.3103 0
M  V30 41 O 4.1247 2.3773 -0.0583 0
M  V30 42 C 4.4720 3.3138 -1.0092 0
M  V30 43 C 5.2346 2.7245 -2.1797 0
M  V30 44 C 5.1086 1.2030 -2.1458 0
M  V30 45 O 5.7837 0.6233 -3.1920 0
M  V30 46 O 4.6991 3.1269 -3.4043 0
M  V30 47 O 3.2917 3.8737 -1.4803 0
M  V30 48 C 3.3861 5.2657 -1.6786 0
M  V30 49 C 3.1379 5.9885 -0.3925 0
M  V30 50 O 1.7896 5.9071 -0.0094 0
M  V30 51 C 0.9442 6.5970 -0.8440 0
M  V30 52 C 1.3242 6.6042 -2.2819 0
M  V30 53 C 2.3218 5.5916 -2.7114 0
M  V30 54 O 2.9334 6.0966 -3.8875 0
M  V30 55 O 0.1557 6.3920 -3.0654 0
M  V30 56 O -0.3206 6.0283 -0.7141 0
M  V30 57 C -1.1640 6.7460 0.1355 0
M  V30 58 C -1.6434 5.8115 1.2067 0
M  V30 59 O -2.7856 5.1051 0.8498 0
M  V30 60 C -3.8240 5.8665 0.3916 0
M  V30 61 C -3.4030 6.4802 -0.9441 0
M  V30 62 C -2.2652 7.4285 -0.6133 0
M  V30 63 O -2.7058 8.5461 0.0948 0
M  V30 64 O -2.8769 5.4848 -1.7397 0
M  V30 65 O -4.9618 5.0884 0.2489 0
M  V30 66 C -4.7417 3.7216 0.2862 0
M  V30 67 C -5.7783 3.0622 -0.6387 0
M  V30 68 O -5.6444 1.7057 -0.7288 0
M  V30 69 C -4.9994 1.1070 0.3462 0
M  V30 70 O -4.9504 -0.2338 0.3095 0
M  V30 71 C -5.5216 1.7321 1.6041 0
M  V30 72 C -4.9730 3.1435 1.6598 0
M  V30 73 O -3.8287 3.1716 2.4456 0
M  V30 74 O -6.8944 1.8164 1.6755 0
M  V30 75 C -5.6729 3.6816 -2.0351 0
M  V30 76 S -6.9011 2.8900 -3.0847 0
M  V30 77 C -8.5862 3.2755 -2.5687 0
M  V30 78 C -9.6021 2.6095 -3.4741 0
M  V30 79 C -10.9834 2.9127 -3.0596 0
M  V30 80 O -11.2651 3.6309 -2.0767 0
M  V30 81 O -12.0321 2.3771 -3.7918 0
M  V30 82 C -1.8473 6.5330 2.5466 0
M  V30 83 S -0.3390 7.2865 3.1245 0
M  V30 84 C -0.5707 8.0596 4.7200 0
M  V30 85 C -1.4237 9.2706 4.7687 0
M  V30 86 C -2.8033 9.1060 4.3270 0
M  V30 87 O -3.2048 9.6637 3.2637 0
M  V30 88 O -3.7512 8.3545 5.0091 0
M  V30 89 C 3.7046 7.3386 -0.2223 0
M  V30 90 S 5.4630 7.4789 -0.2787 0
M  V30 91 C 6.3208 7.2280 -1.7924 0
M  V30 92 C 5.9226 8.2386 -2.8831 0
M  V30 93 C 6.6933 7.9598 -4.1184 0
M  V30 94 O 7.5467 7.0387 -4.1995 0
M  V30 95 O 6.4908 8.7256 -5.2497 0
M  V30 96 C 6.1881 2.1767 1.1575 0
M  V30 97 S 7.3150 0.9077 1.8553 0
M  V30 98 C 8.6147 1.7028 2.8399 0
M  V30 99 C 9.5295 2.5342 1.9625 0
M  V30 100 C 10.2019 1.7264 0.9387 0
M  V30 101 O 10.0102 0.4924 0.9000 0
M  V30 102 O 11.0485 2.2974 0.0069 0
M  V30 103 C 6.4426 -2.9327 2.1829 0
M  V30 104 S 8.0576 -3.3845 2.6472 0
M  V30 105 C 8.6350 -5.0181 2.3670 0
M  V30 106 C 7.8529 -6.0732 3.1326 0
M  V30 107 C 7.9790 -5.7750 4.5859 0
M  V30 108 O 8.6450 -4.7824 5.0256 0
M  V30 109 O 7.3391 -6.6199 5.4972 0
M  V30 110 C 2.1786 -6.7005 -2.4514 0
M  V30 111 S 1.2316 -5.8639 -3.7176 0
M  V30 112 C 1.0412 -7.0636 -5.0980 0
M  V30 113 C 2.4334 -7.3021 -5.6557 0
M  V30 114 C 2.4286 -8.2668 -6.7798 0
M  V30 115 O 1.4486 -8.8480 -7.2501 0
M  V30 116 O 3.6899 -8.5255 -7.3478 0
M  V30 117 C -2.1419 -5.8922 2.6824 0
M  V30 118 S -3.3106 -5.8101 3.9936 0
M  V30 119 C -4.9372 -6.4516 3.7482 0
M  V30 120 C -4.9378 -7.9397 3.3826 0
M  V30 121 C -4.3202 -8.7302 4.4618 0
M  V30 122 O -3.9349 -8.1768 5.5057 0
M  V30 123 O -4.1758 -10.0960 4.2951 0
M  V30 124 O -5.5729 -3.7156 -1.7724 0
M  V30 125 O -7.6212 -1.6034 -1.2273 0
M  V30 126 C -11.1670 -0.9579 0.4999 0
M  V30 127 O -11.2776 0.2958 0.5882 0
M  V30 128 O -11.9773 -1.6343 -0.3954 0
M  V30 129 H -10.7386 -2.4650 1.9466 0
M  V30 130 H -9.5191 -2.2763 0.6428 0
M  V30 131 H -10.1820 -0.2221 2.8507 0
M  V30 132 H -8.9684 0.0090 1.5054 0
M  V30 133 H -6.5020 -3.1512 3.2484 0
M  V30 134 H -7.4472 -3.3077 1.7846 0
M  V30 135 H -5.3467 -1.1689 2.5022 0
M  V30 136 H -6.9960 -0.2899 0.6042 0
M  V30 137 H -5.6458 -1.4069 -1.5462 0
M  V30 138 H -7.0906 -3.7436 -0.4813 0
M  V30 139 H -5.5642 -4.6135 1.0269 0
M  V30 140 H -4.3268 -5.7535 1.1435 0
M  V30 141 H -2.3202 -4.0251 1.7363 0
M  V30 142 H -0.4364 -7.1439 1.1527 0
M  V30 143 H -2.3462 -8.0646 0.4496 0
M  V30 144 H -3.0111 -5.8073 -1.4412 0
M  V30 145 H -4.3278 -7.9626 -0.1084 0
M  V30 146 H -2.2150 -8.5309 -1.7247 0
M  V30 147 H 0.8108 -4.5830 -1.0986 0
M  V30 148 H 2.9753 -6.5994 -0.5115 0
M  V30 149 H 3.6362 -3.2352 -0.2752 0
M  V30 150 H 3.1779 -4.0192 1.7817 0
M  V30 151 H 1.2808 -5.8070 1.5782 0
M  V30 152 H 1.2327 -3.5338 2.0902 0
M  V30 153 H 3.1719 -6.3540 2.1992 0
M  V30 154 H 6.8195 -4.7933 0.5372 0
M  V30 155 H 5.1416 -2.2473 0.5780 0
M  V30 156 H 7.4096 -0.7241 -1.3477 0
M  V30 157 H 7.0674 -2.3681 -2.8379 0
M  V30 158 H 6.6334 -4.6630 -2.0813 0
M  V30 159 H 8.5911 -4.6807 -1.2710 0
M  V30 160 H 5.0548 -2.0437 -3.2947 0
M  V30 161 H 6.8118 0.9653 -0.8926 0
M  V30 162 H 4.6419 0.7346 0.9730 0
M  V30 163 H 5.1264 4.0911 -0.5459 0
M  V30 164 H 6.2899 3.0592 -2.1905 0
M  V30 165 H 4.0243 0.9796 -2.1282 0
M  V30 166 H 6.5887 1.1499 -3.4069 0
M  V30 167 H 4.5328 2.3691 -4.0122 0
M  V30 168 H 4.3502 5.4418 -2.1215 0
M  V30 169 H 3.6526 5.3381 0.3975 0
M  V30 170 H 0.8215 7.6562 -0.4663 0
M  V30 171 H 1.6643 7.6227 -2.6342 0
M  V30 172 H 1.7824 4.6890 -3.0558 0
M  V30 173 H 3.3351 5.3111 -4.3332 0
M  V30 174 H 0.3428 6.5355 -4.0057 0
M  V30 175 H -0.5274 7.5235 0.6244 0
M  V30 176 H -0.8444 5.0643 1.3913 0
M  V30 177 H -4.1018 6.7084 1.0630 0
M  V30 178 H -4.1901 7.0844 -1.4044 0
M  V30 179 H -1.8600 7.7907 -1.5792 0
M  V30 180 H -3.6281 8.8085 -0.1550 0
M  V30 181 H -3.2726 5.5106 -2.6684 0
M  V30 182 H -3.7542 3.5269 -0.1273 0
M  V30 183 H -6.7675 3.4062 -0.2482 0
M  V30 184 H -3.9262 1.4538 0.2581 0
M  V30 185 H -5.1647 1.2271 2.5244 0
M  V30 186 H -5.7084 3.8246 2.1812 0
M  V30 187 H -4.0250 3.2845 3.4093 0
M  V30 188 H -7.1108 2.2025 2.5590 0
M  V30 189 H -4.6716 3.5381 -2.4778 0
M  V30 190 H -5.9456 4.7707 -1.9539 0
M  V30 191 H -8.7796 2.8857 -1.5307 0
M  V30 192 H -8.8179 4.3426 -2.5555 0
M  V30 193 H -9.4603 2.9227 -4.5331 0
M  V30 194 H -9.4993 1.5006 -3.4647 0
M  V30 195 H -12.9643 2.7430 -3.7280 0
M  V30 196 H -2.7274 7.1830 2.4740 0
M  V30 197 H -2.1356 5.7554 3.3173 0
M  V30 198 H -1.0531 7.2744 5.3843 0
M  V30 199 H 0.4442 8.2432 5.1872 0
M  V30 200 H -1.4593 9.5820 5.8611 0
M  V30 201 H -0.9472 10.1284 4.2258 0
M  V30 202 H -4.3248 8.7776 5.7413 0
M  V30 203 H 3.1834 8.1100 -0.8699 0
M  V30 204 H 3.3929 7.7117 0.8221 0
M  V30 205 H 7.4220 7.5539 -1.5877 0
M  V30 206 H 6.3877 6.2382 -2.2230 0
M  V30 207 H 4.8368 8.1382 -3.1298 0
M  V30 208 H 6.0801 9.2759 -2.5757 0
M  V30 209 H 6.6844 9.6919 -5.3582 0
M  V30 210 H 6.8377 2.8502 0.5569 0
M  V30 211 H 5.7399 2.7160 2.0086 0
M  V30 212 H 8.1991 2.3155 3.6413 0
M  V30 213 H 9.2249 0.8969 3.2845 0
M  V30 214 H 8.9668 3.3932 1.5531 0
M  V30 215 H 10.2850 2.9846 2.6599 0
M  V30 216 H 12.0433 2.3869 0.0933 0
M  V30 217 H 6.2273 -1.8907 2.6074 0
M  V30 218 H 5.6896 -3.5708 2.7434 0
M  V30 219 H 8.7757 -5.3554 1.3405 0
M  V30 220 H 9.6999 -5.0649 2.7970 0
M  V30 221 H 6.8159 -6.1572 2.8055 0
M  V30 222 H 8.3599 -7.0439 2.9670 0
M  V30 223 H 7.7602 -6.7478 6.3878 0
M  V30 224 H 3.1181 -7.0584 -2.9097 0
M  V30 225 H 1.6261 -7.6438 -2.1605 0
M  V30 226 H 0.3627 -6.6946 -5.8632 0
M  V30 227 H 0.6924 -8.0421 -4.7115 0
M  V30 228 H 3.1027 -7.7460 -4.8790 0
M  V30 229 H 2.8410 -6.3469 -6.0247 0
M  V30 230 H 4.3001 -7.8351 -7.7096 0
M  V30 231 H -1.1203 -5.6082 3.1564 0
M  V30 232 H -1.9420 -6.9968 2.4844 0
M  V30 233 H -5.5044 -5.9011 2.9977 0
M  V30 234 H -5.5297 -6.4376 4.7271 0
M  V30 235 H -6.0198 -8.2001 3.2701 0
M  V30 236 H -4.4681 -8.1042 2.3856 0
M  V30 237 H -3.4135 -10.4625 3.7332 0
M  V30 238 H -5.5567 -4.7180 -1.6817 0
M  V30 239 H -7.7426 -2.3552 -1.8783 0
M  V30 240 H -11.5221 -2.2100 -1.0843 0
M  V30 END ATOM
M  V30 BEGIN BOND
M  V30 1 1 1 2
M  V30 2 1 2 3
M  V30 3 1 3 4
M  V30 4 1 4 5
M  V30 5 1 5 6
M  V30 6 1 6 7
M  V30 7 1 7 8
M  V30 8 1 8 9
M  V30 9 1 9 10
M  V30 10 1 9 11
M  V30 11 1 11 12
M  V30 12 1 12 13
M  V30 13 1 13 14
M  V30 14 1 14 15
M  V30 15 1 15 16
M  V30 16 1 16 17
M  V30 17 1 17 18
M  V30 18 1 16 19
M  V30 19 1 15 20
M  V30 20 1 20 21
M  V30 21 1 21 22
M  V30 22 1 22 23
M  V30 23 1 23 24
M  V30 24 1 24 25
M  V30 25 1 25 26
M  V30 26 1 26 27
M  V30 27 1 25 28
M  V30 28 1 24 29
M  V30 29 1 29 30
M  V30 30 1 30 31
M  V30 31 1 31 32
M  V30 32 1 32 33
M  V30 33 1 33 34
M  V30 34 1 34 35
M  V30 35 1 35 36
M  V30 36 1 34 37
M  V30 37 1 33 38
M  V30 38 1 38 39
M  V30 39 1 39 40
M  V30 40 1 40 41
M  V30 41 1 41 42
M  V30 42 1 42 43
M  V30 43 1 43 44
M  V30 44 1 44 45
M  V30 45 1 43 46
M  V30 46 1 42 47
M  V30 47 1 47 48
M  V30 48 1 48 49
M  V30 49 1 49 50
M  V30 50 1 50 51
M  V30 51 1 51 52
M  V30 52 1 52 53
M  V30 53 1 53 54
M  V30 54 1 52 55
M  V30 55 1 51 56
M  V30 56 1 56 57
M  V30 57 1 57 58
M  V30 58 1 58 59
M  V30 59 1 59 60
M  V30 60 1 60 61
M  V30 61 1 61 62
M  V30 62 1 62 63
M  V30 63 1 61 64
M  V30 64 1 60 65
M  V30 65 1 65 66
M  V30 66 1 66 67
M  V30 67 1 67 68
M  V30 68 1 68 69
M  V30 69 1 69 70
M  V30 70 1 69 71
M  V30 71 1 71 72
M  V30 72 1 72 73
M  V30 73 1 71 74
M  V30 74 1 67 75
M  V30 75 1 75 76
M  V30 76 1 76 77
M  V30 77 1 77 78
M  V30 78 1 78 79
M  V30 79 2 79 80
M  V30 80 1 79 81
M  V30 81 1 58 82
M  V30 82 1 82 83
M  V30 83 1 83 84
M  V30 84 1 84 85
M  V30 85 1 85 86
M  V30 86 2 86 87
M  V30 87 1 86 88
M  V30 88 1 49 89
M  V30 89 1 89 90
M  V30 90 1 90 91
M  V30 91 1 91 92
M  V30 92 1 92 93
M  V30 93 2 93 94
M  V30 94 1 93 95
M  V30 95 1 40 96
M  V30 96 1 96 97
M  V30 97 1 97 98
M  V30 98 1 98 99
M  V30 99 1 99 100
M  V30 100 2 100 101
M  V30 101 1 100 102
M  V30 102 1 31 103
M  V30 103 1 103 104
M  V30 104 1 104 105
M  V30 105 1 105 106
M  V30 106 1 106 107
M  V30 107 2 107 108
M  V30 108 1 107 109
M  V30 109 1 22 110
M  V30 110 1 110 111
M  V30 111 1 111 112
M  V30 112 1 112 113
M  V30 113 1 113 114
M  V30 114 2 114 115
M  V30 115 1 114 116
M  V30 116 1 13 117
M  V30 117 1 117 118
M  V30 118 1 118 119
M  V30 119 1 119 120
M  V30 120 1 120 121
M  V30 121 2 121 122
M  V30 122 1 121 123
M  V30 123 1 8 124
M  V30 124 1 7 125
M  V30 125 1 1 126
M  V30 126 2 126 127
M  V30 127 1 126 128
M  V30 128 1 10 5
M  V30 129 1 70 6
M  V30 130 1 17 12
M  V30 131 1 26 21
M  V30 132 1 35 30
M  V30 133 1 44 39
M  V30 134 1 53 48
M  V30 135 1 62 57
M  V30 136 1 72 66
M  V30 137 1 1 129
M  V30 138 1 1 130
M  V30 139 1 2 131
M  V30 140 1 2 132
M  V30 141 1 4 133
M  V30 142 1 4 134
M  V30 143 1 5 135
M  V30 144 1 6 136
M  V30 145 1 7 137
M  V30 146 1 8 138
M  V30 147 1 9 139
M  V30 148 1 12 140
M  V30 149 1 13 141
M  V30 150 1 15 142
M  V30 151 1 16 143
M  V30 152 1 17 144
M  V30 153 1 18 145
M  V30 154 1 19 146
M  V30 155 1 21 147
M  V30 156 1 22 148
M  V30 157 1 24 149
M  V30 158 1 25 150
M  V30 159 1 26 151
M  V30 160 1 27 152
M  V30 161 1 28 153
M  V30 162 1 30 154
M  V30 163 1 31 155
M  V30 164 1 33 156
M  V30 165 1 34 157
M  V30 166 1 35 158
M  V30 167 1 36 159
M  V30 168 1 37 160
M  V30 169 1 39 161
M  V30 170 1 40 162
M  V30 171 1 42 163
M  V30 172 1 43 164
M  V30 173 1 44 165
M  V30 174 1 45 166
M  V30 175 1 46 167
M  V30 176 1 48 168
M  V30 177 1 49 169
M  V30 178 1 51 170
M  V30 179 1 52 171
M  V30 180 1 53 172
M  V30 181 1 54 173
M  V30 182 1 55 174
M  V30 183 1 57 175
M  V30 184 1 58 176
M  V30 185 1 60 177
M  V30 186 1 61 178
M  V30 187 1 62 179
M  V30 188 1 63 180
M  V30 189 1 64 181
M  V30 190 1 66 182
M  V30 191 1 67 183
M  V30 192 1 69 184
M  V30 193 1 71 185
M  V30 194 1 72 186
M  V30 195 1 73 187
M  V30 196 1 74 188
M  V30 197 1 75 189
M  V30 198 1 75 190
M  V30 199 1 77 191
M  V30 200 1 77 192
M  V30 201 1 78 193
M  V30 202 1 78 194
M  V30 203 1 81 195
M  V30 204 1 82 196
M  V30 205 1 82 197
M  V30 206 1 84 198
M  V30 207 1 84 199
M  V30 208 1 85 200
M  V30 209 1 85 201
M  V30 210 1 88 202
M  V30 211 1 89 203
M  V30 212 1 89 204
M  V30 213 1 91 205
M  V30 214 1 91 206
M  V30 215 1 92 207
M  V30 216 1 92 208
M  V30 217 1 95 209
M  V30 218 1 96 210
M  V30 219 1 96 211
M  V30 220 1 98 212
M  V30 221 1 98 213
M  V30 222 1 99 214
M  V30 223 1 99 215
M  V30 224 1 102 216
M  V30 225 1 103 217
M  V30 226 1 103 218
M  V30 227 1 105 219
M  V30 228 1 105 220
M  V30 229 1 106 221
M  V30 230 1 106 222
M  V30 231 1 109 223
M  V30 232 1 110 224
M  V30 233 1 110 225
M  V30 234 1 112 226
M  V30 235 1 112 227
M  V30 236 1 113 228
M  V30 237 1 113 229
M  V30 238 1 116 230
M  V30 239 1 117 231
M  V30 240 1 117 232
M  V30 241 1 119 233
M  V30 242 1 119 234
M  V30 243 1 120 235
M  V30 244 1 120 236
M  V30 245 1 123 237
M  V30 246 1 124 238
M  V30 247 1 125 239
M  V30 248 1 128 240
M  V30 END BOND
M  V30 END CTAB
M  END

$$$$
